 Abaqus/Standard 3DEXPERIENCE R2019x                  DATE 26-Feb-2020 TIME 10:21:20
 SUMMARY OF JOB INFORMATION:
 STEP  INC ATT SEVERE EQUIL TOTAL  TOTAL      STEP       INC OF       DOF    IF
               DISCON ITERS ITERS  TIME/    TIME/LPF    TIME/LPF    MONITOR RIKS
               ITERS               FREQ
   1     1   1     0     0     0  0.00       1.00e-36   1.000e-36 
   2     1   1     0     2     2  0.00500    0.00500    0.005000  
   3     1   1     0     0     0  0.00500    1.00e-36   1.000e-36 
   4     1   1     0     2     2  0.0100     0.00500    0.005000  
   5     1   1     0     0     0  0.0100     1.00e-36   1.000e-36 
   6     1   1     0     2     2  0.0150     0.00500    0.005000  
   7     1   1     0     0     0  0.0150     1.00e-36   1.000e-36 
   8     1   1     0     2     2  0.0200     0.00500    0.005000  
   9     1   1     0     0     0  0.0200     1.00e-36   1.000e-36 
  10     1   1     0     2     2  0.0250     0.00500    0.005000  
  11     1   1     0     0     0  0.0250     1.00e-36   1.000e-36 
  12     1   1     0     2     2  0.0300     0.00500    0.005000  
  13     1   1     0     0     0  0.0300     1.00e-36   1.000e-36 
  14     1   1     0     2     2  0.0350     0.00500    0.005000  
  15     1   1     0     0     0  0.0350     1.00e-36   1.000e-36 
  16     1   1     0     2     2  0.0400     0.00500    0.005000  
  17     1   1     0     0     0  0.0400     1.00e-36   1.000e-36 
  18     1   1     0     2     2  0.0450     0.00500    0.005000  
  19     1   1     0     0     0  0.0450     1.00e-36   1.000e-36 
  20     1   1     0     2     2  0.0550     0.0100     0.01000   
  21     1   1     0     0     0  0.0550     1.00e-36   1.000e-36 
  22     1   1     0     2     2  0.0600     0.00500    0.005000  
  23     1   1     0     0     0  0.0600     1.00e-36   1.000e-36 
  24     1   1     0     2     2  0.0650     0.00500    0.005000  
  25     1   1     0     0     0  0.0650     1.00e-36   1.000e-36 
  26     1   1     0     2     2  0.0700     0.00500    0.005000  
  27     1   1     0     0     0  0.0700     1.00e-36   1.000e-36 
  28     1   1     0     2     2  0.0750     0.00500    0.005000  
  29     1   1     0     0     0  0.0750     1.00e-36   1.000e-36 
  30     1   1     0     2     2  0.0800     0.00500    0.005000  
  31     1   1     0     0     0  0.0800     1.00e-36   1.000e-36 
  32     1   1     0     2     2  0.0850     0.00500    0.005000  
  33     1   1     0     0     0  0.0850     1.00e-36   1.000e-36 
  34     1   1     0     2     2  0.0900     0.00500    0.005000  
  35     1   1     0     0     0  0.0900     1.00e-36   1.000e-36 
  36     1   1     0     2     2  0.0950     0.00500    0.005000  
  37     1   1     0     0     0  0.0950     1.00e-36   1.000e-36 
  38     1   1     0     2     2  0.105      0.0100     0.01000   
  39     1   1     0     0     0  0.105      1.00e-36   1.000e-36 
  40     1   1     0     2     2  0.110      0.00500    0.005000  
  41     1   1     0     0     0  0.110      1.00e-36   1.000e-36 
  42     1   1     0     2     2  0.115      0.00500    0.005000  
  43     1   1     0     0     0  0.115      1.00e-36   1.000e-36 
  44     1   1     0     2     2  0.120      0.00500    0.005000  
  45     1   1     0     0     0  0.120      1.00e-36   1.000e-36 
  46     1   1     0     2     2  0.125      0.00500    0.005000  
  47     1   1     0     0     0  0.125      1.00e-36   1.000e-36 
  48     1   1     0     2     2  0.130      0.00500    0.005000  
  49     1   1     0     0     0  0.130      1.00e-36   1.000e-36 
  50     1   1     0     2     2  0.135      0.00500    0.005000  
  51     1   1     0     0     0  0.135      1.00e-36   1.000e-36 
  52     1   1     0     2     2  0.140      0.00500    0.005000  
  53     1   1     0     0     0  0.140      1.00e-36   1.000e-36 
  54     1   1     0     2     2  0.145      0.00500    0.005000  
  55     1   1     0     0     0  0.145      1.00e-36   1.000e-36 
  56     1   1     0     2     2  0.155      0.0100     0.01000   
  57     1   1     0     0     0  0.155      1.00e-36   1.000e-36 
  58     1   1     0     2     2  0.160      0.00500    0.005000  
  59     1   1     0     0     0  0.160      1.00e-36   1.000e-36 
  60     1   1     0     2     2  0.165      0.00500    0.005000  
  61     1   1     0     0     0  0.165      1.00e-36   1.000e-36 
  62     1   1     0     2     2  0.170      0.00500    0.005000  
  63     1   1     0     0     0  0.170      1.00e-36   1.000e-36 
  64     1   1     0     2     2  0.175      0.00500    0.005000  
  65     1   1     0     0     0  0.175      1.00e-36   1.000e-36 
  66     1   1     0     2     2  0.180      0.00500    0.005000  
  67     1   1     0     0     0  0.180      1.00e-36   1.000e-36 
  68     1   1     0     2     2  0.185      0.00500    0.005000  
  69     1   1     0     0     0  0.185      1.00e-36   1.000e-36 
  70     1   1     0     2     2  0.190      0.00500    0.005000  
  71     1   1     0     0     0  0.190      1.00e-36   1.000e-36 
  72     1   1     0     2     2  0.195      0.00500    0.005000  
  73     1   1     0     0     0  0.195      1.00e-36   1.000e-36 
  74     1   1     0     2     2  0.205      0.0100     0.01000   
  75     1   1     0     0     0  0.205      1.00e-36   1.000e-36 
  76     1   1     0     2     2  0.210      0.00500    0.005000  
  77     1   1     0     0     0  0.210      1.00e-36   1.000e-36 
  78     1   1     0     2     2  0.215      0.00500    0.005000  
  79     1   1     0     0     0  0.215      1.00e-36   1.000e-36 
  80     1   1     0     2     2  0.220      0.00500    0.005000  
  81     1   1     0     0     0  0.220      1.00e-36   1.000e-36 
  82     1   1     0     2     2  0.225      0.00500    0.005000  
  83     1   1     0     0     0  0.225      1.00e-36   1.000e-36 
  84     1   1     0     2     2  0.230      0.00500    0.005000  
  85     1   1     0     0     0  0.230      1.00e-36   1.000e-36 
  86     1   1     0     2     2  0.235      0.00500    0.005000  
  87     1   1     0     0     0  0.235      1.00e-36   1.000e-36 
  88     1   1     0     2     2  0.240      0.00500    0.005000  
  89     1   1     0     0     0  0.240      1.00e-36   1.000e-36 
  90     1   1     0     2     2  0.245      0.00500    0.005000  
  91     1   1     0     0     0  0.245      1.00e-36   1.000e-36 
  92     1   1     0     2     2  0.255      0.0100     0.01000   
  93     1   1     0     0     0  0.255      1.00e-36   1.000e-36 
  94     1   1     0     2     2  0.260      0.00500    0.005000  
  95     1   1     0     0     0  0.260      1.00e-36   1.000e-36 
  96     1   1     0     2     2  0.265      0.00500    0.005000  
  97     1   1     0     0     0  0.265      1.00e-36   1.000e-36 
  98     1   1     0     2     2  0.270      0.00500    0.005000  
  99     1   1     0     0     0  0.270      1.00e-36   1.000e-36 
 100     1   1     0     2     2  0.275      0.00500    0.005000  
 101     1   1     0     0     0  0.275      1.00e-36   1.000e-36 
 102     1   1     0     2     2  0.280      0.00500    0.005000  
 103     1   1     0     0     0  0.280      1.00e-36   1.000e-36 
 104     1   1     0     2     2  0.285      0.00500    0.005000  
 105     1   1     0     0     0  0.285      1.00e-36   1.000e-36 
 106     1   1     0     2     2  0.290      0.00500    0.005000  
 107     1   1     0     0     0  0.290      1.00e-36   1.000e-36 
 108     1   1     0     2     2  0.295      0.00500    0.005000  
 109     1   1     0     0     0  0.295      1.00e-36   1.000e-36 
 110     1   1     0     2     2  0.305      0.0100     0.01000   
 111     1   1     0     0     0  0.305      1.00e-36   1.000e-36 
 112     1   1     0     2     2  0.310      0.00500    0.005000  
 113     1   1     0     0     0  0.310      1.00e-36   1.000e-36 
 114     1   1     0     2     2  0.315      0.00500    0.005000  
 115     1   1     0     0     0  0.315      1.00e-36   1.000e-36 
 116     1   1     0     2     2  0.320      0.00500    0.005000  
 117     1   1     0     0     0  0.320      1.00e-36   1.000e-36 
 118     1   1     0     2     2  0.325      0.00500    0.005000  
 119     1   1     0     0     0  0.325      1.00e-36   1.000e-36 
 120     1   1     0     2     2  0.330      0.00500    0.005000  
 121     1   1     0     0     0  0.330      1.00e-36   1.000e-36 
 122     1   1     0     2     2  0.335      0.00500    0.005000  
 123     1   1     0     0     0  0.335      1.00e-36   1.000e-36 
 124     1   1     0     2     2  0.340      0.00500    0.005000  
 125     1   1     0     0     0  0.340      1.00e-36   1.000e-36 
 126     1   1     0     2     2  0.345      0.00500    0.005000  
 127     1   1     0     0     0  0.345      1.00e-36   1.000e-36 
 128     1   1     0     2     2  0.355      0.0100     0.01000   
 129     1   1     0     0     0  0.355      1.00e-36   1.000e-36 
 130     1   1     0     2     2  0.360      0.00500    0.005000  
 131     1   1     0     0     0  0.360      1.00e-36   1.000e-36 
 132     1   1     0     2     2  0.365      0.00500    0.005000  
 133     1   1     0     0     0  0.365      1.00e-36   1.000e-36 
 134     1   1     0     2     2  0.370      0.00500    0.005000  
 135     1   1     0     0     0  0.370      1.00e-36   1.000e-36 
 136     1   1     0     2     2  0.375      0.00500    0.005000  
 137     1   1     0     0     0  0.375      1.00e-36   1.000e-36 
 138     1   1     0     2     2  0.380      0.00500    0.005000  
 139     1   1     0     0     0  0.380      1.00e-36   1.000e-36 
 140     1   1     0     2     2  0.385      0.00500    0.005000  
 141     1   1     0     0     0  0.385      1.00e-36   1.000e-36 
 142     1   1     0     2     2  0.390      0.00500    0.005000  
 143     1   1     0     0     0  0.390      1.00e-36   1.000e-36 
 144     1   1     0     2     2  0.395      0.00500    0.005000  
 145     1   1     0     0     0  0.395      1.00e-36   1.000e-36 
 146     1   1     0     2     2  0.405      0.0100     0.01000   
 147     1   1     0     0     0  0.405      1.00e-36   1.000e-36 
 148     1   1     0     2     2  0.410      0.00500    0.005000  
 149     1   1     0     0     0  0.410      1.00e-36   1.000e-36 
 150     1   1     0     2     2  0.415      0.00500    0.005000  
 151     1   1     0     0     0  0.415      1.00e-36   1.000e-36 
 152     1   1     0     2     2  0.420      0.00500    0.005000  
 153     1   1     0     0     0  0.420      1.00e-36   1.000e-36 
 154     1   1     0     2     2  0.425      0.00500    0.005000  
 155     1   1     0     0     0  0.425      1.00e-36   1.000e-36 
 156     1   1     0     2     2  0.430      0.00500    0.005000  
 157     1   1     0     0     0  0.430      1.00e-36   1.000e-36 
 158     1   1     0     2     2  0.435      0.00500    0.005000  
 159     1   1     0     0     0  0.435      1.00e-36   1.000e-36 
 160     1   1     0     2     2  0.440      0.00500    0.005000  
 161     1   1     0     0     0  0.440      1.00e-36   1.000e-36 
 162     1   1     0     2     2  0.445      0.00500    0.005000  
 163     1   1     0     0     0  0.445      1.00e-36   1.000e-36 
 164     1   1     0     2     2  0.455      0.0100     0.01000   
 165     1   1     0     0     0  0.455      1.00e-36   1.000e-36 
 166     1   1     0     2     2  0.460      0.00500    0.005000  
 167     1   1     0     0     0  0.460      1.00e-36   1.000e-36 
 168     1   1     0     2     2  0.465      0.00500    0.005000  
 169     1   1     0     0     0  0.465      1.00e-36   1.000e-36 
 170     1   1     0     2     2  0.470      0.00500    0.005000  
 171     1   1     0     0     0  0.470      1.00e-36   1.000e-36 
 172     1   1     0     2     2  0.475      0.00500    0.005000  
 173     1   1     0     0     0  0.475      1.00e-36   1.000e-36 
 174     1   1     0     2     2  0.480      0.00500    0.005000  
 175     1   1     0     0     0  0.480      1.00e-36   1.000e-36 
 176     1   1     0     2     2  0.485      0.00500    0.005000  
 177     1   1     0     0     0  0.485      1.00e-36   1.000e-36 
 178     1   1     0     2     2  0.490      0.00500    0.005000  
 179     1   1     0     0     0  0.490      1.00e-36   1.000e-36 
 180     1   1     0     2     2  0.495      0.00500    0.005000  
 181     1   1     0     0     0  0.495      1.00e-36   1.000e-36 
 182     1   1     0     2     2  0.505      0.0100     0.01000   
 183     1   1     0     0     0  0.505      1.00e-36   1.000e-36 
 184     1   1     0     2     2  0.510      0.00500    0.005000  
 185     1   1     0     0     0  0.510      1.00e-36   1.000e-36 
 186     1   1     0     2     2  0.515      0.00500    0.005000  
 187     1   1     0     0     0  0.515      1.00e-36   1.000e-36 
 188     1   1     0     2     2  0.520      0.00500    0.005000  
 189     1   1     0     0     0  0.520      1.00e-36   1.000e-36 
 190     1   1     0     2     2  0.525      0.00500    0.005000  
 191     1   1     0     0     0  0.525      1.00e-36   1.000e-36 
 192     1   1     0     2     2  0.530      0.00500    0.005000  
 193     1   1     0     0     0  0.530      1.00e-36   1.000e-36 
 194     1   1     0     2     2  0.535      0.00500    0.005000  
 195     1   1     0     0     0  0.535      1.00e-36   1.000e-36 
 196     1   1     0     2     2  0.540      0.00500    0.005000  
 197     1   1     0     0     0  0.540      1.00e-36   1.000e-36 
 198     1   1     0     2     2  0.545      0.00500    0.005000  
 199     1   1     0     0     0  0.545      1.00e-36   1.000e-36 
 200     1   1     0     2     2  0.555      0.0100     0.01000   
 201     1   1     0     0     0  0.555      1.00e-36   1.000e-36 
 202     1   1     0     2     2  0.560      0.00500    0.005000  
 203     1   1     0     0     0  0.560      1.00e-36   1.000e-36 
 204     1   1     0     2     2  0.565      0.00500    0.005000  
 205     1   1     0     0     0  0.565      1.00e-36   1.000e-36 
 206     1   1     0     2     2  0.570      0.00500    0.005000  
 207     1   1     0     0     0  0.570      1.00e-36   1.000e-36 
 208     1   1     0     2     2  0.575      0.00500    0.005000  
 209     1   1     0     0     0  0.575      1.00e-36   1.000e-36 
 210     1   1     0     2     2  0.580      0.00500    0.005000  
 211     1   1     0     0     0  0.580      1.00e-36   1.000e-36 
 212     1   1     0     2     2  0.585      0.00500    0.005000  
 213     1   1     0     0     0  0.585      1.00e-36   1.000e-36 
 214     1   1     0     2     2  0.590      0.00500    0.005000  
 215     1   1     0     0     0  0.590      1.00e-36   1.000e-36 
 216     1   1     0     2     2  0.595      0.00500    0.005000  
 217     1   1     0     0     0  0.595      1.00e-36   1.000e-36 
 218     1   1     0     2     2  0.605      0.0100     0.01000   
 219     1   1     0     0     0  0.605      1.00e-36   1.000e-36 
 220     1   1     0     2     2  0.610      0.00500    0.005000  
 221     1   1     0     0     0  0.610      1.00e-36   1.000e-36 
 222     1   1     0     2     2  0.615      0.00500    0.005000  
 223     1   1     0     0     0  0.615      1.00e-36   1.000e-36 
 224     1   1     0     2     2  0.620      0.00500    0.005000  
 225     1   1     0     0     0  0.620      1.00e-36   1.000e-36 
 226     1   1     0     2     2  0.625      0.00500    0.005000  
 227     1   1     0     0     0  0.625      1.00e-36   1.000e-36 
 228     1   1     0     2     2  0.630      0.00500    0.005000  
 229     1   1     0     0     0  0.630      1.00e-36   1.000e-36 
 230     1   1     0     2     2  0.635      0.00500    0.005000  
 231     1   1     0     0     0  0.635      1.00e-36   1.000e-36 
 232     1   1     0     2     2  0.640      0.00500    0.005000  
 233     1   1     0     0     0  0.640      1.00e-36   1.000e-36 
 234     1   1     0     2     2  0.645      0.00500    0.005000  
 235     1   1     0     0     0  0.645      1.00e-36   1.000e-36 
 236     1   1     0     2     2  0.655      0.0100     0.01000   
 237     1   1     0     0     0  0.655      1.00e-36   1.000e-36 
 238     1   1     0     2     2  0.660      0.00500    0.005000  
 239     1   1     0     0     0  0.660      1.00e-36   1.000e-36 
 240     1   1     0     2     2  0.665      0.00500    0.005000  
 241     1   1     0     0     0  0.665      1.00e-36   1.000e-36 
 242     1   1     0     2     2  0.670      0.00500    0.005000  
 243     1   1     0     0     0  0.670      1.00e-36   1.000e-36 
 244     1   1     0     2     2  0.675      0.00500    0.005000  
 245     1   1     0     0     0  0.675      1.00e-36   1.000e-36 
 246     1   1     0     2     2  0.680      0.00500    0.005000  
 247     1   1     0     0     0  0.680      1.00e-36   1.000e-36 
 248     1   1     0     2     2  0.685      0.00500    0.005000  
 249     1   1     0     0     0  0.685      1.00e-36   1.000e-36 
 250     1   1     0     2     2  0.690      0.00500    0.005000  
 251     1   1     0     0     0  0.690      1.00e-36   1.000e-36 
 252     1   1     0     2     2  0.695      0.00500    0.005000  
 253     1   1     0     0     0  0.695      1.00e-36   1.000e-36 
 254     1   1     0     2     2  0.705      0.0100     0.01000   
 255     1   1     0     0     0  0.705      1.00e-36   1.000e-36 
 256     1   1     0     2     2  0.710      0.00500    0.005000  
 257     1   1     0     0     0  0.710      1.00e-36   1.000e-36 
 258     1   1     0     2     2  0.715      0.00500    0.005000  
 259     1   1     0     0     0  0.715      1.00e-36   1.000e-36 
 260     1   1     0     2     2  0.720      0.00500    0.005000  
 261     1   1     0     0     0  0.720      1.00e-36   1.000e-36 
 262     1   1     0     2     2  0.725      0.00500    0.005000  
 263     1   1     0     0     0  0.725      1.00e-36   1.000e-36 
 264     1   1     0     2     2  0.730      0.00500    0.005000  
 265     1   1     0     0     0  0.730      1.00e-36   1.000e-36 
 266     1   1     0     2     2  0.735      0.00500    0.005000  
 267     1   1     0     0     0  0.735      1.00e-36   1.000e-36 
 268     1   1     0     2     2  0.740      0.00500    0.005000  
 269     1   1     0     0     0  0.740      1.00e-36   1.000e-36 
 270     1   1     0     2     2  0.745      0.00500    0.005000  
 271     1   1     0     0     0  0.745      1.00e-36   1.000e-36 
                          
 THE ANALYSIS HAS COMPLETED SUCCESSFULLY
